[TITLE]
;;Project Title/Notes
EPASWMM-FEWS Test

[OPTIONS]
;;Option             Value
FLOW_UNITS           CFS
INFILTRATION         MODIFIED_GREEN_AMPT
FLOW_ROUTING         DYNWAVE
LINK_OFFSETS         DEPTH
MIN_SLOPE            0
ALLOW_PONDING        YES
SKIP_STEADY_STATE    NO
START_DATE           03/18/9999
START_TIME           11:00:00
REPORT_START_DATE    03/18/9999
REPORT_START_TIME    11:00:00
END_DATE             03/19/9999
END_TIME             11:00:00
SWEEP_START          01/01
SWEEP_END            12/31
DRY_DAYS             0
REPORT_STEP          00:15:00
WET_STEP             00:01:00
DRY_STEP             01:00:00
ROUTING_STEP         0:00:01 
RULE_STEP            00:00:00
ALLOW_PONDING        YES
INERTIAL_DAMPING     PARTIAL
VARIABLE_STEP        0.75
LENGTHENING_STEP     1
MIN_SURFAREA         0
NORMAL_FLOW_LIMITED  BOTH
SKIP_STEADY_STATE    NO
FORCE_MAIN_EQUATION  H-W
LINK_OFFSETS         ELEVATION
MIN_SLOPE            0
MAX_TRIALS           8
HEAD_TOLERANCE       0.0015
SYS_FLOW_TOL         5
LAT_FLOW_TOL         5
MINIMUM_STEP         0.1
THREADS              4

[EVAPORATION]
;;Data Source    Parameters
;;-------------- ----------------
CONSTANT         0.0
DRY_ONLY         NO

[RAINGAGES]
;;Name           Format    Interval SCF      Source    
;;-------------- --------- ------ ------ ----------
DON_3            INTENSITY 1:00     1.0      FILE       "model/rain.dat"   DON_3    MM   
DON_1            INTENSITY 1:00     1.0      FILE       "model/rain.dat"   DON_1    MM   
DON_2            INTENSITY 1:00     1.0      FILE       "model/rain.dat"   DON_2    MM   
DON_4            INTENSITY 1:00     1.0      FILE       "model/rain.dat"   DON_4    MM   
DON_5            INTENSITY 1:00     1.0      FILE       "model/rain.dat"   DON_5    MM   
DON_6            INTENSITY 1:00     1.0      FILE       "model/rain.dat"   DON_6    MM      
DON_7            INTENSITY 1:00     1.0      FILE       "model/rain.dat"   DON_7    MM    
DON_8            INTENSITY 1:00     1.0      FILE       "model/rain.dat"   DON_8    MM      
DON_9            INTENSITY 1:00     1.0      FILE       "model/rain.dat"   DON_9    MM     
DON_10           INTENSITY 1:00     1.0      FILE       "model/rain.dat"   DON_10    MM         
DON_11           INTENSITY 1:00     1.0      FILE       "model/rain.dat"   DON_11    MM       

[SUBCATCHMENTS]
;;Name           Rain Gage        Outlet           Area     %Imperv  Width    %Slope   CurbLen  SnowPack        
;;-------------- ---------------- ---------------- -------- -------- -------- -------- -------- ----------------
DON_1            DON_1            J1               4        50       400      0.5      0                        
DON_3            DON_3            J3               4        25       400      0.5      0                        
DON_4            DON_2            J2               4        50       400      0.5      0                        
DON_5            DON_5            J2               4        50       400      0.5      0                        
DON_6            DON_6            J2               4        50       400      0.5      0                        
DON_7            DON_7            J2               4        50       400      0.5      0                        
DON_8            DON_8            J2               4        50       400      0.5      0                        
DON_9            DON_9            J2               4        50       400      0.5      0                        
DON_10           DON_10           J2               4        50       400      0.5      0                        
DON_11           DON_11           J2               4        50       400      0.5      0                        
DON_2            DON_2            J2               4        50       400      0.5      0                        

[SUBAREAS]
;;Subcatchment   N-Imperv   N-Perv     S-Imperv   S-Perv     PctZero    RouteTo    PctRouted 
;;-------------- ---------- ---------- ---------- ---------- ---------- ---------- ----------
DON_1            0.01       0.1        0.05       0.05       25         OUTLET    
DON_3            0.01       0.1        0.05       0.05       25         OUTLET    
DON_4            0.01       0.1        0.05       0.05       25         OUTLET    
DON_5            0.01       0.1        0.05       0.05       25         OUTLET    
DON_6            0.01       0.1        0.05       0.05       25         OUTLET    
DON_7            0.01       0.1        0.05       0.05       25         OUTLET    
DON_8            0.01       0.1        0.05       0.05       25         OUTLET    
DON_9            0.01       0.1        0.05       0.05       25         OUTLET    
DON_10           0.01       0.1        0.05       0.05       25         OUTLET    
DON_11           0.01       0.1        0.05       0.05       25         OUTLET    
DON_2            0.01       0.1        0.05       0.05       25         OUTLET    

[INFILTRATION]
;;Subcatchment   Suction    Ksat       IMD       
;;-------------- ---------- ---------- ----------
DON_1            3.5        0.5        0.25      
DON_3            3.5        0.5        0.25      
DON_4            3.5        0.5        0.25      
DON_5            3.5        0.5        0.25      
DON_6            3.5        0.5        0.25      
DON_7            3.5        0.5        0.25      
DON_8            3.5        0.5        0.25      
DON_9            3.5        0.5        0.25      
DON_10           3.5        0.5        0.25      
DON_11           3.5        0.5        0.25      
DON_2            3.5        0.5        0.25      

[JUNCTIONS]
;;Name           Elevation  MaxDepth   InitDepth  SurDepth   Aponded   
;;-------------- ---------- ---------- ---------- ---------- ----------
J1               96         4          0          0          0         
J2               90         4          0          0          0         
J3               93         4          0          0          0         
J4               88         4          0          0          0         

[OUTFALLS]
;;Name           Elevation  Type       Stage Data       Gated    Route To        
;;-------------- ---------- ---------- ---------------- -------- ----------------
Out1             85         NORMAL                      NO                       

[STORAGE]
;;Name           Elev.    MaxDepth   InitDepth  Shape      Curve Name/Params            N/A      Fevap    Psi      Ksat     IMD     
;;-------------- -------- ---------- ----------- ---------- ---------------------------- -------- --------          -------- --------
;Dam Description
Dam              0        4          0          TABULAR    SU                           0        0       

[CONDUITS]
;;Name           From Node        To Node          Length     Roughness  InOffset   OutOffset  InitFlow   MaxFlow   
;;-------------- ---------------- ---------------- ---------- ---------- ---------- ---------- ---------- ----------
C1               J1               J2               400        0.01       0          0          0          0         
C2               J2               J4               400        0.01       0          0          0          0         
C4               J4               Dam              400        0.01       0          0          0          0         
C3               J3               J4               400        0.01       0          0          0          0         

[OUTLETS]
;;Name           From Node        To Node          Offset     Type            QTable/Qcoeff    Qexpon     Gated   
;;-------------- ---------------- ---------------- ---------- --------------- ---------------- ---------- --------
;Dam Outlet Description
2                Dam              Out1             *          TABULAR/HEAD    LocationX                 NO      

[XSECTIONS]
;;Link           Shape        Geom1            Geom2      Geom3      Geom4      Barrels    Culvert   
;;-------------- ------------ ---------------- ---------- ---------- ---------- ---------- ----------
C1               CIRCULAR     1                0          0          0          1                    
C2               CIRCULAR     1                0          0          0          1                    
C4               CIRCULAR     1.5              0          0          0          1                    
C3               CIRCULAR     1                0          0          0          1                    


[CONTROLS]
Rule DamClosed
IF SIMULATION TIME = 12:00:00
THEN OUTLET TestOutlet SETTING = 0

[CURVES]
;;Name           Type       X-Value    Y-Value   
;;-------------- ---------- ---------- ----------
;
;
;Rating Curve
LocationX     Rating     100     999
LocationX               200     999
LocationX               300     999
LocationX               400     999
LocationX               500     999
LocationX               600     999

;Rating Curve
LOC_Y     Rating     101     888
LOC_Y               102     888
LOC_Y               103     888
LOC_Y               104     888
LOC_Y               105     888
LOC_Y               106     888

;
;Rating Curve
LOC_Z               Rating    101          777
LOC_Z                          102          777
LOC_Z                          103          777
LOC_Z                          104          777
LOC_Z                          105          777
LOC_Z                          106         777

;
;Storage Curve
SU               Storage    1          2         
SU                          2          4         
SU                          3          6         
SU                          4          8         
SU                          5          10        
SU                          30         30        

;
;Storage Curve
LocationX     Storage     100     999
LocationX               200     999
LocationX               300     999
LocationX               400     999
LocationX               500     999
LocationX               600     999

[REPORT]
;;Reporting Options
INPUT      YES
CONTROLS   YES
SUBCATCHMENTS ALL
NODES ALL
LINKS ALL

[TAGS]
Node       Dam              DamTag          
Link       2                DamTag          

[MAP]
DIMENSIONS 0.000 0.000 15000.000 15000.000
Units      None

[COORDINATES]
;;Node           X-Coord            Y-Coord           
;;-------------- ------------------ ------------------
J1               13431.232          10401.146         
J2               14204.871          3266.476          
J3               4577.364           10186.246         
J4               5479.943           3223.496          
Out1             -1683.422          2621.053          
Dam              -1354.647          2726.731          

[VERTICES]
;;Link           X-Coord            Y-Coord           
;;-------------- ------------------ ------------------

[Polygons]
;;Subcatchment   X-Coord            Y-Coord           
;;-------------- ------------------ ------------------
DON_1            11493.585          13780.777         
DON_1            11493.585          13780.777         
DON_1            11570.796          10398.230         
DON_1            8012.209           10385.361         
DON_1            7986.726           13849.558         
DON_1            11579.545          13866.737         
DON_3            1955.587           13581.662         
DON_3            1955.587           13581.662         
DON_3            -1654.728          13710.602         
DON_3            -1525.788          9584.527          
DON_3            2256.447           9455.587          
DON_3            2127.507           13667.622         
DON_4            11261.062          7920.354          
DON_4            7500.000           7743.363          
DON_4            7414.040           4126.074          
DON_4            11239.255          4340.974          
DON_5            -3184.039          8257.329          
DON_5            -171.010           8355.049          
DON_5            187.296            5781.759          
DON_5            -3444.625          5521.173          
DON_5            -3460.912          7964.169          
DON_6            -3786.645          11384.365         
DON_6            -3037.459          11465.798         
DON_6            -2842.020          8925.081          
DON_6            -4519.544          8941.368          
DON_6            -5073.290          11286.645         
DON_6            -3900.651          11400.651         
DON_7            17125.407          13664.495         
DON_7            17239.414          10537.459         
DON_7            14519.544          10472.313         
DON_7            14372.964          13583.062         
DON_8            17402.280          10016.287         
DON_8            18118.893          7980.456          
DON_8            14812.704          7573.290          
DON_8            14617.264          9837.134          
DON_9            14942.997          6482.085          
DON_9            18428.339          6807.818          
DON_9            19047.231          3778.502          
DON_9            15154.723          3615.635          
DON_9            14877.850          6482.085          
DON_10           15447.883          3029.316          
DON_10           19258.958          2996.743          
DON_10           19486.971          260.586           
DON_10           15855.049          179.153           
DON_10           15708.469          2149.837          
DON_11           10431.596          2557.003          
DON_11           13216.612          2410.423          
DON_11           13623.779          228.013           
DON_11           10496.743          179.153           
DON_11           10366.450          2508.143          
DON_2            6881.107           2312.704          
DON_2            6832.248           162.866           
DON_2            4617.264           195.440           
DON_2            4568.404           2296.417          

[SYMBOLS]
;;Gage           X-Coord            Y-Coord           
;;-------------- ------------------ ------------------
DON_3            3121.437           12913.341         
DON_1            12477.195          13683.010         
DON_2            11707.526          7286.203          
DON_4            -2662.866          4934.853          
DON_5            -4519.544          8583.062          
DON_6            17711.726          12768.730         
DON_7            18395.765          9039.088          
DON_8            19079.805          5960.912          
DON_9            19845.277          1872.964          
DON_10           10073.290          765.472           
DON_11           3982.085           1140.065          